Circuit: * F:\Projects\~Compleated - ModuCard-OrangePie\Simulation\Improved_delay.asc

Direct Newton iteration failed to find .op point.  (Use ".option noopiter" to skip.)
Starting Gmin stepping
Gmin = 10
Gmin = 1.07374
Gmin = 0.115292
Gmin = 0.0123794
Gmin = 0.00132923
Gmin = 0.000142725
Gmin = 1.5325e-05
Gmin = 1.6455e-06
Gmin = 1.76685e-07
Gmin = 1.89714e-08
Gmin = 2.03704e-09
Gmin = 2.18725e-10
Gmin = 2.34854e-11
Gmin = 2.52173e-12
Gmin = 2.70769e-13
Gmin = 0
Gmin stepping succeeded in finding the operating point.


Date: Sat Apr 19 13:51:36 2025
Total elapsed time: 0.109 seconds.

tnom = 27
temp = 27
method = modified trap
totiter = 6004
traniter = 5653
tranpoints = 2333
accept = 2039
rejected = 294
matrix size = 27
fillins = 15
solver = Normal
Avg thread counts: 1.2/1.4/1.4/1.2
Matrix Compiler1: 2.21 KB object code size  0.7/0.5/[0.5]
Matrix Compiler2: 2.43 KB object code size  0.3/0.4/[0.2]

